Version 4
SHEET 1 880 680
WIRE 144 -160 96 -160
WIRE 272 -160 224 -160
WIRE 416 -160 272 -160
WIRE 96 -128 96 -160
WIRE 272 -128 272 -160
WIRE 416 -48 416 -160
WIRE 96 0 96 -48
WIRE 144 0 96 0
WIRE 272 0 272 -48
WIRE 272 0 224 0
WIRE 96 48 96 0
WIRE 272 64 272 0
WIRE 96 160 96 128
WIRE 144 160 96 160
WIRE 272 160 272 144
WIRE 272 160 224 160
WIRE 416 160 416 32
WIRE 416 160 272 160
WIRE 272 192 272 160
FLAG 272 192 0
FLAG 96 -160 1
FLAG 96 0 2
FLAG 272 0 3
FLAG 96 160 4
SYMBOL res 256 -144 R0
SYMATTR InstName R3
SYMATTR Value 10
SYMBOL res 80 -144 R0
SYMATTR InstName R2
SYMATTR Value 20
SYMBOL res 240 -176 R90
WINDOW 0 0 56 VBottom 2
WINDOW 3 32 56 VTop 2
SYMATTR InstName R1
SYMATTR Value 15
SYMBOL res 256 48 R0
SYMATTR InstName R6
SYMATTR Value 15
SYMBOL res 240 144 R90
WINDOW 0 0 56 VBottom 2
WINDOW 3 32 56 VTop 2
SYMATTR InstName R7
SYMATTR Value 15
SYMBOL res 80 32 R0
SYMATTR InstName R5
SYMATTR Value 20
SYMBOL voltage 416 -64 R0
SYMATTR InstName V1
SYMATTR Value 10
SYMBOL res 240 -16 R90
WINDOW 0 0 56 VBottom 2
WINDOW 3 32 56 VTop 2
SYMATTR InstName R4
SYMATTR Value 10
TEXT 90 240 Left 2 !.op
